gridcapa-swe-runner-app/src/test/resources/hvdc/TestCase16Nodes.xiidm
<?xml version="1.0" encoding="UTF-8"?>
<iidm:network xmlns:iidm="http://www.powsybl.org/schema/iidm/1_7" id="TestCase16Nodes" caseDate="2022-05-16T14:43:53.106+02:00" forecastDistance="0" sourceFormat="UCTE" minimumValidationLevel="STEADY_STATE_HYPOTHESIS">
    <iidm:substation id="BBE1AA" country="BE">
        <iidm:voltageLevel id="BBE1AA1" nominalV="380.0" topologyKind="BUS_BREAKER">
            <iidm:busBreakerTopology>
                <iidm:bus id="BBE1AA1 ">
                    <iidm:property name="geographicalName" value="BE1"/>
                </iidm:bus>
                <iidm:bus id="BBE4AA1 ">
                    <iidm:property name="geographicalName" value="BE4"/>
                </iidm:bus>
                <iidm:switch id="BBE1AA1  BBE4AA1  1" kind="BREAKER" retained="true" open="false" bus1="BBE1AA1 " bus2="BBE4AA1 ">
                    <iidm:property name="orderCode" value="1"/>
                    <iidm:property name="currentLimit" value="2000"/>
                </iidm:switch>
            </iidm:busBreakerTopology>
            <iidm:generator id="BBE1AA1 _generator" energySource="OTHER" minP="-9000.0" maxP="9000.0" voltageRegulatorOn="true" targetP="1500.0" targetV="400.0" targetQ="0.0" bus="BBE1AA1 " connectableBus="BBE1AA1 ">
                <iidm:minMaxReactiveLimits minQ="-9000.0" maxQ="9000.0"/>
            </iidm:generator>
            <iidm:generator id="BBE4AA1 _generator" energySource="OTHER" minP="-9000.0" maxP="9000.0" voltageRegulatorOn="true" targetP="2500.0" targetV="400.0" targetQ="0.0" bus="BBE4AA1 " connectableBus="BBE4AA1 ">
                <iidm:minMaxReactiveLimits minQ="-9000.0" maxQ="9000.0"/>
            </iidm:generator>
            <iidm:load id="BBE1AA1 _load" loadType="UNDEFINED" p0="2500.0" q0="0.0" bus="BBE1AA1 " connectableBus="BBE1AA1 "/>
            <iidm:load id="BBE4AA1 _load" loadType="UNDEFINED" p0="2000.0" q0="0.0" bus="BBE4AA1 " connectableBus="BBE4AA1 "/>
        </iidm:voltageLevel>
    </iidm:substation>
    <iidm:substation id="BBE2AA" country="BE">
        <iidm:voltageLevel id="BBE2AA1" nominalV="380.0" topologyKind="BUS_BREAKER">
            <iidm:busBreakerTopology>
                <iidm:bus id="BBE2AA1 ">
                    <iidm:property name="geographicalName" value="BE2"/>
                </iidm:bus>
                <iidm:bus id="BBE3AA1 ">
                    <iidm:property name="geographicalName" value="BE3"/>
                </iidm:bus>
            </iidm:busBreakerTopology>
            <iidm:generator id="BBE2AA1 _generator" energySource="OTHER" minP="-9000.0" maxP="9000.0" voltageRegulatorOn="true" targetP="0.0" targetV="400.0" targetQ="0.0" bus="BBE2AA1 " connectableBus="BBE2AA1 ">
                <iidm:minMaxReactiveLimits minQ="-9000.0" maxQ="9000.0"/>
            </iidm:generator>
            <iidm:generator id="BBE3AA1 _generator" energySource="OTHER" minP="-9000.0" maxP="9000.0" voltageRegulatorOn="true" targetP="2500.0" targetV="400.0" targetQ="0.0" bus="BBE3AA1 " connectableBus="BBE3AA1 ">
                <iidm:minMaxReactiveLimits minQ="-9000.0" maxQ="9000.0"/>
            </iidm:generator>
            <iidm:load id="BBE2AA1 _load" loadType="UNDEFINED" p0="0.0" q0="0.0" bus="BBE2AA1 " connectableBus="BBE2AA1 "/>
            <iidm:load id="BBE3AA1 _load" loadType="UNDEFINED" p0="1500.0" q0="0.0" bus="BBE3AA1 " connectableBus="BBE3AA1 "/>
        </iidm:voltageLevel>
        <iidm:twoWindingsTransformer id="BBE2AA1  BBE3AA1  1" r="0.0" x="10.0" g="0.0" b="0.0" ratedU1="400.0" ratedU2="400.0" bus1="BBE3AA1 " connectableBus1="BBE3AA1 " voltageLevelId1="BBE2AA1" bus2="BBE2AA1 " connectableBus2="BBE2AA1 " voltageLevelId2="BBE2AA1">
            <iidm:property name="nomimalPower" value="1000.0"/>
            <iidm:property name="elementName" value="PST"/>
            <iidm:phaseTapChanger lowTapPosition="-16" tapPosition="0" regulationMode="FIXED_TAP">
                <iidm:step r="0.0" x="0.0" g="0.0" b="0.0" rho="1.0" alpha="-6.2276423729910535"/>
                <iidm:step r="0.0" x="0.0" g="0.0" b="0.0" rho="1.0" alpha="-5.839110508104064"/>
                <iidm:step r="0.0" x="0.0" g="0.0" b="0.0" rho="1.0" alpha="-5.4504442277066305"/>
                <iidm:step r="0.0" x="0.0" g="0.0" b="0.0" rho="1.0" alpha="-5.061652408895631"/>
                <iidm:step r="0.0" x="0.0" g="0.0" b="0.0" rho="1.0" alpha="-4.672743946063913"/>
                <iidm:step r="0.0" x="0.0" g="0.0" b="0.0" rho="1.0" alpha="-4.283727749689918"/>
                <iidm:step r="0.0" x="0.0" g="0.0" b="0.0" rho="1.0" alpha="-3.894612745121778"/>
                <iidm:step r="0.0" x="0.0" g="0.0" b="0.0" rho="1.0" alpha="-3.505407871356285"/>
                <iidm:step r="0.0" x="0.0" g="0.0" b="0.0" rho="1.0" alpha="-3.1161220798131644"/>
                <iidm:step r="0.0" x="0.0" g="0.0" b="0.0" rho="1.0" alpha="-2.7267643331050597"/>
                <iidm:step r="0.0" x="0.0" g="0.0" b="0.0" rho="1.0" alpha="-2.337343603803646"/>
                <iidm:step r="0.0" x="0.0" g="0.0" b="0.0" rho="1.0" alpha="-1.9478688732023104"/>
                <iidm:step r="0.0" x="0.0" g="0.0" b="0.0" rho="1.0" alpha="-1.5583491300758083"/>
                <iidm:step r="0.0" x="0.0" g="0.0" b="0.0" rho="1.0" alpha="-1.1687933694373345"/>
                <iidm:step r="0.0" x="0.0" g="0.0" b="0.0" rho="1.0" alpha="-0.7792105912934298"/>
                <iidm:step r="0.0" x="0.0" g="0.0" b="0.0" rho="1.0" alpha="-0.3896097993971608"/>
                <iidm:step r="0.0" x="0.0" g="0.0" b="0.0" rho="1.0" alpha="0.0"/>
                <iidm:step r="0.0" x="0.0" g="0.0" b="0.0" rho="1.0" alpha="0.3896097993971608"/>
                <iidm:step r="0.0" x="0.0" g="0.0" b="0.0" rho="1.0" alpha="0.7792105912934298"/>
                <iidm:step r="0.0" x="0.0" g="0.0" b="0.0" rho="1.0" alpha="1.1687933694373345"/>
                <iidm:step r="0.0" x="0.0" g="0.0" b="0.0" rho="1.0" alpha="1.5583491300758083"/>
                <iidm:step r="0.0" x="0.0" g="0.0" b="0.0" rho="1.0" alpha="1.9478688732023104"/>
                <iidm:step r="0.0" x="0.0" g="0.0" b="0.0" rho="1.0" alpha="2.337343603803646"/>
                <iidm:step r="0.0" x="0.0" g="0.0" b="0.0" rho="1.0" alpha="2.7267643331050597"/>
                <iidm:step r="0.0" x="0.0" g="0.0" b="0.0" rho="1.0" alpha="3.1161220798131644"/>
                <iidm:step r="0.0" x="0.0" g="0.0" b="0.0" rho="1.0" alpha="3.505407871356285"/>
                <iidm:step r="0.0" x="0.0" g="0.0" b="0.0" rho="1.0" alpha="3.894612745121778"/>
                <iidm:step r="0.0" x="0.0" g="0.0" b="0.0" rho="1.0" alpha="4.283727749689918"/>
                <iidm:step r="0.0" x="0.0" g="0.0" b="0.0" rho="1.0" alpha="4.672743946063913"/>
                <iidm:step r="0.0" x="0.0" g="0.0" b="0.0" rho="1.0" alpha="5.061652408895631"/>
                <iidm:step r="0.0" x="0.0" g="0.0" b="0.0" rho="1.0" alpha="5.4504442277066305"/>
                <iidm:step r="0.0" x="0.0" g="0.0" b="0.0" rho="1.0" alpha="5.839110508104064"/>
                <iidm:step r="0.0" x="0.0" g="0.0" b="0.0" rho="1.0" alpha="6.2276423729910535"/>
            </iidm:phaseTapChanger>
            <iidm:currentLimits2 permanentLimit="2000.0"/>
        </iidm:twoWindingsTransformer>
        <iidm:twoWindingsTransformer id="twt-test-regulation-id" name="twt_name" r="1.0" x="2.0" g="3.0" b="4.0" ratedU1="5.0" ratedU2="6.0" voltageLevelId1="BBE2AA1" connectableBus1="BBE3AA1 " voltageLevelId2="BBE2AA1" connectableBus2="BBE2AA1 ">
            <iidm:phaseTapChanger regulating="true" lowTapPosition="0" tapPosition="1" targetDeadband="1.0" regulationMode="ACTIVE_POWER_CONTROL" regulationValue="10.0">
                <iidm:terminalRef id="twt-test-regulation-id" side="ONE"/>
                    <iidm:step r="1.0" x="2.0" g="3.0" b="4.0" rho="1.0" alpha="0.0"/>
                    <iidm:step r="1.0" x="2.0" g="3.0" b="4.0" rho="6.0" alpha="5.0"/>
                </iidm:phaseTapChanger>
        </iidm:twoWindingsTransformer>
        <iidm:twoWindingsTransformer id="twt-without-tap-changer-id" name="twt_name" r="1.0" x="2.0" g="3.0" b="4.0" ratedU1="5.0" ratedU2="6.0" voltageLevelId1="BBE2AA1" connectableBus1="BBE3AA1 " voltageLevelId2="BBE2AA1" connectableBus2="BBE2AA1 ">
        </iidm:twoWindingsTransformer>
    </iidm:substation>
    <iidm:substation id="DDE1AA" country="DE">
        <iidm:voltageLevel id="DDE1AA1" nominalV="380.0" topologyKind="BUS_BREAKER">
            <iidm:busBreakerTopology>
                <iidm:bus id="DDE1AA1 ">
                    <iidm:property name="geographicalName" value="DE1"/>
                </iidm:bus>
            </iidm:busBreakerTopology>
            <iidm:generator id="DDE1AA1 _generator" energySource="OTHER" minP="-9000.0" maxP="9000.0" voltageRegulatorOn="true" targetP="0.0" targetV="400.0" targetQ="0.0" bus="DDE1AA1 " connectableBus="DDE1AA1 ">
                <iidm:minMaxReactiveLimits minQ="-9000.0" maxQ="9000.0"/>
            </iidm:generator>
            <iidm:load id="DDE1AA1 _load" loadType="UNDEFINED" p0="0.0" q0="0.0" bus="DDE1AA1 " connectableBus="DDE1AA1 "/>
        </iidm:voltageLevel>
    </iidm:substation>
    <iidm:substation id="DDE2AA" country="DE">
        <iidm:voltageLevel id="DDE2AA1" nominalV="380.0" topologyKind="BUS_BREAKER">
            <iidm:busBreakerTopology>
                <iidm:bus id="DDE2AA1 ">
                    <iidm:property name="geographicalName" value="DE2"/>
                </iidm:bus>
            </iidm:busBreakerTopology>
            <iidm:generator id="DDE2AA1 _generator" energySource="OTHER" minP="-9000.0" maxP="9000.0" voltageRegulatorOn="true" targetP="2000.0" targetV="400.0" targetQ="0.0" bus="DDE2AA1 " connectableBus="DDE2AA1 ">
                <iidm:minMaxReactiveLimits minQ="-9000.0" maxQ="9000.0"/>
            </iidm:generator>
            <iidm:load id="DDE2AA1 _load" loadType="UNDEFINED" p0="3000.0" q0="0.0" bus="DDE2AA1 " connectableBus="DDE2AA1 "/>
        </iidm:voltageLevel>
    </iidm:substation>
    <iidm:substation id="DDE3AA" country="DE">
        <iidm:voltageLevel id="DDE3AA1" nominalV="380.0" topologyKind="BUS_BREAKER">
            <iidm:busBreakerTopology>
                <iidm:bus id="DDE3AA1 ">
                    <iidm:property name="geographicalName" value="DE3"/>
                </iidm:bus>
                <iidm:bus id="DDE4AA1 ">
                    <iidm:property name="geographicalName" value="DE3"/>
                </iidm:bus>
                <iidm:switch id="DDE3AA1  DDE4AA1  1" kind="BREAKER" retained="true" open="true" bus1="DDE3AA1 " bus2="DDE4AA1 ">
                    <iidm:property name="orderCode" value="1"/>
                    <iidm:property name="currentLimit" value="2000"/>
                </iidm:switch>
            </iidm:busBreakerTopology>
            <iidm:generator id="DDE3AA1 _generator" energySource="OTHER" minP="-9000.0" maxP="9000.0" voltageRegulatorOn="true" targetP="1500.0" targetV="400.0" targetQ="0.0" bus="DDE3AA1 " connectableBus="DDE3AA1 ">
                <iidm:minMaxReactiveLimits minQ="-9000.0" maxQ="9000.0"/>
            </iidm:generator>
            <iidm:generator id="DDE4AA1 _generator" energySource="OTHER" minP="-9000.0" maxP="9000.0" voltageRegulatorOn="true" targetP="1500.0" targetV="400.0" targetQ="0.0" bus="DDE4AA1 " connectableBus="DDE4AA1 ">
                <iidm:minMaxReactiveLimits minQ="-9000.0" maxQ="9000.0"/>
            </iidm:generator>
            <iidm:load id="DDE3AA1 _load" loadType="UNDEFINED" p0="2000.0" q0="0.0" bus="DDE3AA1 " connectableBus="DDE3AA1 "/>
            <iidm:load id="DDE4AA1 _load" loadType="UNDEFINED" p0="1000.0" q0="0.0" bus="DDE4AA1 " connectableBus="DDE4AA1 "/>
        </iidm:voltageLevel>
    </iidm:substation>
    <iidm:substation id="FFR1AA" country="FR">
        <iidm:voltageLevel id="FFR1AA1" nominalV="380.0" topologyKind="BUS_BREAKER">
            <iidm:busBreakerTopology>
                <iidm:bus id="FFR1AA1 ">
                    <iidm:property name="geographicalName" value="FR1"/>
                </iidm:bus>
            </iidm:busBreakerTopology>
            <iidm:generator id="FFR1AA1 _generator" energySource="OTHER" minP="-9000.0" maxP="9000.0" voltageRegulatorOn="true" targetP="2000.0" targetV="400.0" targetQ="0.0" bus="FFR1AA1 " connectableBus="FFR1AA1 ">
                <iidm:minMaxReactiveLimits minQ="-9000.0" maxQ="9000.0"/>
            </iidm:generator>
            <iidm:load id="FFR1AA1 _load" loadType="UNDEFINED" p0="1000.0" q0="0.0" bus="FFR1AA1 " connectableBus="FFR1AA1 "/>
        </iidm:voltageLevel>
    </iidm:substation>
    <iidm:substation id="FFR2AA" country="FR">
        <iidm:voltageLevel id="FFR2AA1" nominalV="380.0" topologyKind="BUS_BREAKER">
            <iidm:busBreakerTopology>
                <iidm:bus id="FFR2AA1 ">
                    <iidm:property name="geographicalName" value="FR2"/>
                </iidm:bus>
                <iidm:bus id="FFR4AA1 ">
                    <iidm:property name="geographicalName" value="FR4"/>
                </iidm:bus>
            </iidm:busBreakerTopology>
            <iidm:generator id="FFR2AA1 _generator" energySource="OTHER" minP="-9000.0" maxP="9000.0" voltageRegulatorOn="true" targetP="2000.0" targetV="400.0" targetQ="0.0" bus="FFR2AA1 " connectableBus="FFR2AA1 ">
                <iidm:minMaxReactiveLimits minQ="-9000.0" maxQ="9000.0"/>
            </iidm:generator>
            <iidm:generator id="FFR4AA1 _generator" energySource="OTHER" minP="-9000.0" maxP="9000.0" voltageRegulatorOn="true" targetP="0.0" targetV="400.0" targetQ="0.0" bus="FFR4AA1 " connectableBus="FFR4AA1 ">
                <iidm:minMaxReactiveLimits minQ="-9000.0" maxQ="9000.0"/>
            </iidm:generator>
            <iidm:load id="FFR2AA1 _load" loadType="UNDEFINED" p0="3500.0" q0="0.0" bus="FFR2AA1 " connectableBus="FFR2AA1 "/>
            <iidm:load id="FFR4AA1 _load" loadType="UNDEFINED" p0="0.0" q0="0.0" bus="FFR4AA1 " connectableBus="FFR4AA1 "/>
        </iidm:voltageLevel>
        <iidm:twoWindingsTransformer id="FFR2AA1  FFR4AA1  1" r="0.0" x="10.0" g="0.0" b="0.0" ratedU1="400.0" ratedU2="400.0" bus1="FFR4AA1 " connectableBus1="FFR4AA1 " voltageLevelId1="FFR2AA1" bus2="FFR2AA1 " connectableBus2="FFR2AA1 " voltageLevelId2="FFR2AA1">
            <iidm:property name="nomimalPower" value="1000.0"/>
            <iidm:property name="elementName" value="PST"/>
            <iidm:phaseTapChanger lowTapPosition="-16" tapPosition="5" regulationMode="FIXED_TAP">
                <iidm:step r="0.0" x="0.0" g="0.0" b="0.0" rho="1.0" alpha="-6.2276423729910535"/>
                <iidm:step r="0.0" x="0.0" g="0.0" b="0.0" rho="1.0" alpha="-5.839110508104064"/>
                <iidm:step r="0.0" x="0.0" g="0.0" b="0.0" rho="1.0" alpha="-5.4504442277066305"/>
                <iidm:step r="0.0" x="0.0" g="0.0" b="0.0" rho="1.0" alpha="-5.061652408895631"/>
                <iidm:step r="0.0" x="0.0" g="0.0" b="0.0" rho="1.0" alpha="-4.672743946063913"/>
                <iidm:step r="0.0" x="0.0" g="0.0" b="0.0" rho="1.0" alpha="-4.283727749689918"/>
                <iidm:step r="0.0" x="0.0" g="0.0" b="0.0" rho="1.0" alpha="-3.894612745121778"/>
                <iidm:step r="0.0" x="0.0" g="0.0" b="0.0" rho="1.0" alpha="-3.505407871356285"/>
                <iidm:step r="0.0" x="0.0" g="0.0" b="0.0" rho="1.0" alpha="-3.1161220798131644"/>
                <iidm:step r="0.0" x="0.0" g="0.0" b="0.0" rho="1.0" alpha="-2.7267643331050597"/>
                <iidm:step r="0.0" x="0.0" g="0.0" b="0.0" rho="1.0" alpha="-2.337343603803646"/>
                <iidm:step r="0.0" x="0.0" g="0.0" b="0.0" rho="1.0" alpha="-1.9478688732023104"/>
                <iidm:step r="0.0" x="0.0" g="0.0" b="0.0" rho="1.0" alpha="-1.5583491300758083"/>
                <iidm:step r="0.0" x="0.0" g="0.0" b="0.0" rho="1.0" alpha="-1.1687933694373345"/>
                <iidm:step r="0.0" x="0.0" g="0.0" b="0.0" rho="1.0" alpha="-0.7792105912934298"/>
                <iidm:step r="0.0" x="0.0" g="0.0" b="0.0" rho="1.0" alpha="-0.3896097993971608"/>
                <iidm:step r="0.0" x="0.0" g="0.0" b="0.0" rho="1.0" alpha="0.0"/>
                <iidm:step r="0.0" x="0.0" g="0.0" b="0.0" rho="1.0" alpha="0.3896097993971608"/>
                <iidm:step r="0.0" x="0.0" g="0.0" b="0.0" rho="1.0" alpha="0.7792105912934298"/>
                <iidm:step r="0.0" x="0.0" g="0.0" b="0.0" rho="1.0" alpha="1.1687933694373345"/>
                <iidm:step r="0.0" x="0.0" g="0.0" b="0.0" rho="1.0" alpha="1.5583491300758083"/>
                <iidm:step r="0.0" x="0.0" g="0.0" b="0.0" rho="1.0" alpha="1.9478688732023104"/>
                <iidm:step r="0.0" x="0.0" g="0.0" b="0.0" rho="1.0" alpha="2.337343603803646"/>
                <iidm:step r="0.0" x="0.0" g="0.0" b="0.0" rho="1.0" alpha="2.7267643331050597"/>
                <iidm:step r="0.0" x="0.0" g="0.0" b="0.0" rho="1.0" alpha="3.1161220798131644"/>
                <iidm:step r="0.0" x="0.0" g="0.0" b="0.0" rho="1.0" alpha="3.505407871356285"/>
                <iidm:step r="0.0" x="0.0" g="0.0" b="0.0" rho="1.0" alpha="3.894612745121778"/>
                <iidm:step r="0.0" x="0.0" g="0.0" b="0.0" rho="1.0" alpha="4.283727749689918"/>
                <iidm:step r="0.0" x="0.0" g="0.0" b="0.0" rho="1.0" alpha="4.672743946063913"/>
                <iidm:step r="0.0" x="0.0" g="0.0" b="0.0" rho="1.0" alpha="5.061652408895631"/>
                <iidm:step r="0.0" x="0.0" g="0.0" b="0.0" rho="1.0" alpha="5.4504442277066305"/>
                <iidm:step r="0.0" x="0.0" g="0.0" b="0.0" rho="1.0" alpha="5.839110508104064"/>
                <iidm:step r="0.0" x="0.0" g="0.0" b="0.0" rho="1.0" alpha="6.2276423729910535"/>
            </iidm:phaseTapChanger>
            <iidm:currentLimits2 permanentLimit="2000.0"/>
        </iidm:twoWindingsTransformer>
    </iidm:substation>
    <iidm:substation id="FFR3AA" country="FR">
        <iidm:voltageLevel id="FFR3AA1" nominalV="380.0" topologyKind="BUS_BREAKER">
            <iidm:busBreakerTopology>
                <iidm:bus id="FFR3AA1 ">
                    <iidm:property name="geographicalName" value="FR3"/>
                </iidm:bus>
            </iidm:busBreakerTopology>
            <iidm:generator id="FFR3AA1 _generator" energySource="OTHER" minP="-9000.0" maxP="9000.0" voltageRegulatorOn="true" targetP="0.0" targetV="400.0" targetQ="0.0" bus="FFR3AA1 " connectableBus="FFR3AA1 ">
                <iidm:minMaxReactiveLimits minQ="-9000.0" maxQ="9000.0"/>
            </iidm:generator>
            <iidm:load id="FFR3AA1 _load" loadType="UNDEFINED" p0="0.0" q0="0.0" bus="FFR3AA1 " connectableBus="FFR3AA1 "/>
        </iidm:voltageLevel>
    </iidm:substation>
    <iidm:substation id="FFR5AA" country="FR">
        <iidm:voltageLevel id="FFR5AA1" nominalV="380.0" topologyKind="BUS_BREAKER">
            <iidm:busBreakerTopology>
                <iidm:bus id="FFR5AA1 ">
                    <iidm:property name="geographicalName" value="FR5"/>
                </iidm:bus>
            </iidm:busBreakerTopology>
            <iidm:generator id="FFR5AA1 _generator" energySource="OTHER" minP="-9000.0" maxP="9000.0" voltageRegulatorOn="true" targetP="1500.0" targetV="400.0" targetQ="0.0" bus="FFR5AA1 " connectableBus="FFR5AA1 ">
                <iidm:minMaxReactiveLimits minQ="-9000.0" maxQ="9000.0"/>
            </iidm:generator>
            <iidm:load id="FFR5AA1 _load" loadType="UNDEFINED" p0="1500.0" q0="0.0" bus="FFR5AA1 " connectableBus="FFR5AA1 "/>
        </iidm:voltageLevel>
    </iidm:substation>
    <iidm:substation id="NNL1AA" country="NL">
        <iidm:voltageLevel id="NNL1AA1" nominalV="380.0" topologyKind="BUS_BREAKER">
            <iidm:busBreakerTopology>
                <iidm:bus id="NNL1AA1 ">
                    <iidm:property name="geographicalName" value="NL1"/>
                </iidm:bus>
            </iidm:busBreakerTopology>
            <iidm:generator id="NNL1AA1 _generator" energySource="OTHER" minP="-9000.0" maxP="9000.0" voltageRegulatorOn="true" targetP="1500.0" targetV="400.0" targetQ="0.0" bus="NNL1AA1 " connectableBus="NNL1AA1 ">
                <iidm:minMaxReactiveLimits minQ="-9000.0" maxQ="9000.0"/>
            </iidm:generator>
            <iidm:load id="NNL1AA1 _load" loadType="UNDEFINED" p0="1000.0" q0="0.0" bus="NNL1AA1 " connectableBus="NNL1AA1 "/>
        </iidm:voltageLevel>
    </iidm:substation>
    <iidm:substation id="NNL2AA" country="NL">
        <iidm:voltageLevel id="NNL2AA1" nominalV="380.0" topologyKind="BUS_BREAKER">
            <iidm:busBreakerTopology>
                <iidm:bus id="NNL2AA1 ">
                    <iidm:property name="geographicalName" value="NL2"/>
                </iidm:bus>
            </iidm:busBreakerTopology>
            <iidm:generator id="NNL2AA1 _generator" energySource="OTHER" minP="-9000.0" maxP="9000.0" voltageRegulatorOn="true" targetP="500.0" targetV="400.0" targetQ="0.0" bus="NNL2AA1 " connectableBus="NNL2AA1 ">
                <iidm:minMaxReactiveLimits minQ="-9000.0" maxQ="9000.0"/>
            </iidm:generator>
            <iidm:load id="NNL2AA1 _load" loadType="UNDEFINED" p0="1000.0" q0="0.0" bus="NNL2AA1 " connectableBus="NNL2AA1 "/>
        </iidm:voltageLevel>
    </iidm:substation>
    <iidm:substation id="NNL3AA" country="NL">
        <iidm:voltageLevel id="NNL3AA1" nominalV="380.0" topologyKind="BUS_BREAKER">
            <iidm:busBreakerTopology>
                <iidm:bus id="NNL3AA1 ">
                    <iidm:property name="geographicalName" value="NL3"/>
                </iidm:bus>
            </iidm:busBreakerTopology>
            <iidm:generator id="NNL3AA1 _generator" energySource="OTHER" minP="-9000.0" maxP="9000.0" voltageRegulatorOn="true" targetP="2000.0" targetV="400.0" targetQ="0.0" bus="NNL3AA1 " connectableBus="NNL3AA1 ">
                <iidm:minMaxReactiveLimits minQ="-9000.0" maxQ="9000.0"/>
            </iidm:generator>
            <iidm:load id="NNL3AA1 _load" loadType="UNDEFINED" p0="2500.0" q0="0.0" bus="NNL3AA1 " connectableBus="NNL3AA1 "/>
        </iidm:voltageLevel>
    </iidm:substation>
    <iidm:line id="BBE1AA1  BBE2AA1  1" r="0.0" x="10.0" g1="0.0" b1="0.0" g2="0.0" b2="0.0" bus1="BBE1AA1 " connectableBus1="BBE1AA1 " voltageLevelId1="BBE1AA1" bus2="BBE2AA1 " connectableBus2="BBE2AA1 " voltageLevelId2="BBE2AA1">
        <iidm:currentLimits1 permanentLimit="2000.0"/>
        <iidm:currentLimits2 permanentLimit="2000.0"/>
    </iidm:line>
    <iidm:line id="BBE1AA1  BBE3AA1  1" r="0.0" x="10.0" g1="0.0" b1="0.0" g2="0.0" b2="0.0" bus1="BBE1AA1 " connectableBus1="BBE1AA1 " voltageLevelId1="BBE1AA1" bus2="BBE3AA1 " connectableBus2="BBE3AA1 " voltageLevelId2="BBE2AA1">
        <iidm:currentLimits1 permanentLimit="2000.0"/>
        <iidm:currentLimits2 permanentLimit="2000.0"/>
    </iidm:line>
    <iidm:line id="BBE1AA1  BBE3AA1  2" r="0.0" x="10.0" g1="0.0" b1="0.0" g2="0.0" b2="0.0" bus1="BBE1AA1 " connectableBus1="BBE1AA1 " voltageLevelId1="BBE1AA1" bus2="BBE3AA1 " connectableBus2="BBE3AA1 " voltageLevelId2="BBE2AA1">
        <iidm:currentLimits1 permanentLimit="2000.0"/>
        <iidm:currentLimits2 permanentLimit="2000.0"/>
    </iidm:line>
    <iidm:line id="BBE3AA1  BBE4AA1  1" r="0.0" x="10.0" g1="0.0" b1="0.0" g2="0.0" b2="0.0" bus1="BBE3AA1 " connectableBus1="BBE3AA1 " voltageLevelId1="BBE2AA1" bus2="BBE4AA1 " connectableBus2="BBE4AA1 " voltageLevelId2="BBE1AA1">
        <iidm:currentLimits1 permanentLimit="2000.0"/>
        <iidm:currentLimits2 permanentLimit="2000.0"/>
    </iidm:line>
    <iidm:line id="FFR1AA1  FFR2AA1  1" r="0.0" x="10.0" g1="0.0" b1="0.0" g2="0.0" b2="0.0" bus1="FFR1AA1 " connectableBus1="FFR1AA1 " voltageLevelId1="FFR1AA1" bus2="FFR2AA1 " connectableBus2="FFR2AA1 " voltageLevelId2="FFR2AA1">
        <iidm:currentLimits1 permanentLimit="2000.0"/>
        <iidm:currentLimits2 permanentLimit="2000.0"/>
    </iidm:line>
    <iidm:line id="FFR1AA1  FFR3AA1  1" r="0.0" x="10.0" g1="0.0" b1="0.0" g2="0.0" b2="0.0" bus1="FFR1AA1 " connectableBus1="FFR1AA1 " voltageLevelId1="FFR1AA1" bus2="FFR3AA1 " connectableBus2="FFR3AA1 " voltageLevelId2="FFR3AA1">
        <iidm:currentLimits1 permanentLimit="2000.0"/>
        <iidm:currentLimits2 permanentLimit="2000.0"/>
    </iidm:line>
    <iidm:line id="FFR1AA1  FFR4AA1  1" r="0.0" x="10.0" g1="0.0" b1="0.0" g2="0.0" b2="0.0" bus1="FFR1AA1 " connectableBus1="FFR1AA1 " voltageLevelId1="FFR1AA1" bus2="FFR4AA1 " connectableBus2="FFR4AA1 " voltageLevelId2="FFR2AA1">
        <iidm:currentLimits1 permanentLimit="2000.0"/>
        <iidm:currentLimits2 permanentLimit="2000.0"/>
    </iidm:line>
    <iidm:line id="FFR1AA1  FFR5AA1  1" r="0.0" x="10.0" g1="0.0" b1="0.0" g2="0.0" b2="0.0" connectableBus1="FFR1AA1 " voltageLevelId1="FFR1AA1" connectableBus2="FFR5AA1 " voltageLevelId2="FFR5AA1">
        <iidm:currentLimits1 permanentLimit="2000.0"/>
        <iidm:currentLimits2 permanentLimit="2000.0"/>
    </iidm:line>
    <iidm:line id="FFR2AA1  FFR3AA1  1" r="0.0" x="10.0" g1="0.0" b1="0.0" g2="0.0" b2="0.0" bus1="FFR2AA1 " connectableBus1="FFR2AA1 " voltageLevelId1="FFR2AA1" bus2="FFR3AA1 " connectableBus2="FFR3AA1 " voltageLevelId2="FFR3AA1">
        <iidm:currentLimits1 permanentLimit="2000.0"/>
        <iidm:currentLimits2 permanentLimit="2000.0"/>
    </iidm:line>
    <iidm:line id="FFR2AA1  FFR3AA1  2" r="0.0" x="10.0" g1="0.0" b1="0.0" g2="0.0" b2="0.0" bus1="FFR2AA1 " connectableBus1="FFR2AA1 " voltageLevelId1="FFR2AA1" bus2="FFR3AA1 " connectableBus2="FFR3AA1 " voltageLevelId2="FFR3AA1">
        <iidm:currentLimits1 permanentLimit="2000.0"/>
        <iidm:currentLimits2 permanentLimit="2000.0"/>
    </iidm:line>
    <iidm:line id="FFR3AA1  FFR5AA1  1" r="0.0" x="10.0" g1="0.0" b1="0.0" g2="0.0" b2="0.0" bus1="FFR3AA1 " connectableBus1="FFR3AA1 " voltageLevelId1="FFR3AA1" bus2="FFR5AA1 " connectableBus2="FFR5AA1 " voltageLevelId2="FFR5AA1">
        <iidm:currentLimits1 permanentLimit="2000.0"/>
        <iidm:currentLimits2 permanentLimit="2000.0"/>
    </iidm:line>
    <iidm:line id="DDE1AA1  DDE2AA1  1" r="0.0" x="10.0" g1="0.0" b1="0.0" g2="0.0" b2="0.0" bus1="DDE1AA1 " connectableBus1="DDE1AA1 " voltageLevelId1="DDE1AA1" bus2="DDE2AA1 " connectableBus2="DDE2AA1 " voltageLevelId2="DDE2AA1">
        <iidm:currentLimits1 permanentLimit="2000.0"/>
        <iidm:currentLimits2 permanentLimit="2000.0"/>
    </iidm:line>
    <iidm:line id="DDE1AA1  DDE4AA1  1" r="0.0" x="10.0" g1="0.0" b1="0.0" g2="0.0" b2="0.0" bus1="DDE1AA1 " connectableBus1="DDE1AA1 " voltageLevelId1="DDE1AA1" bus2="DDE4AA1 " connectableBus2="DDE4AA1 " voltageLevelId2="DDE3AA1">
        <iidm:currentLimits1 permanentLimit="2000.0"/>
        <iidm:currentLimits2 permanentLimit="2000.0"/>
    </iidm:line>
    <iidm:line id="DDE2AA1  DDE3AA1  1" r="0.0" x="10.0" g1="0.0" b1="0.0" g2="0.0" b2="0.0" bus1="DDE2AA1 " connectableBus1="DDE2AA1 " voltageLevelId1="DDE2AA1" bus2="DDE3AA1 " connectableBus2="DDE3AA1 " voltageLevelId2="DDE3AA1">
        <iidm:currentLimits1 permanentLimit="2000.0"/>
        <iidm:currentLimits2 permanentLimit="2000.0"/>
    </iidm:line>
    <iidm:line id="NNL1AA1  NNL2AA1  1" r="0.0" x="10.0" g1="0.0" b1="0.0" g2="0.0" b2="0.0" bus1="NNL1AA1 " connectableBus1="NNL1AA1 " voltageLevelId1="NNL1AA1" bus2="NNL2AA1 " connectableBus2="NNL2AA1 " voltageLevelId2="NNL2AA1">
        <iidm:currentLimits1 permanentLimit="2000.0"/>
        <iidm:currentLimits2 permanentLimit="2000.0"/>
    </iidm:line>
    <iidm:line id="NNL1AA1  NNL3AA1  1" r="0.0" x="10.0" g1="0.0" b1="0.0" g2="0.0" b2="0.0" bus1="NNL1AA1 " connectableBus1="NNL1AA1 " voltageLevelId1="NNL1AA1" bus2="NNL3AA1 " connectableBus2="NNL3AA1 " voltageLevelId2="NNL3AA1">
        <iidm:currentLimits1 permanentLimit="2000.0"/>
        <iidm:currentLimits2 permanentLimit="2000.0"/>
    </iidm:line>
    <iidm:line id="NNL2AA1  NNL3AA1  1" r="0.0" x="10.0" g1="0.0" b1="0.0" g2="0.0" b2="0.0" bus1="NNL2AA1 " connectableBus1="NNL2AA1 " voltageLevelId1="NNL2AA1" bus2="NNL3AA1 " connectableBus2="NNL3AA1 " voltageLevelId2="NNL3AA1">
        <iidm:currentLimits1 permanentLimit="2000.0"/>
        <iidm:currentLimits2 permanentLimit="2000.0"/>
    </iidm:line>
    <iidm:line id="FFR4AA1  DDE1AA1  1" r="0.0" x="10.0" g1="0.0" b1="0.0" g2="0.0" b2="0.0" bus1="FFR4AA1 " connectableBus1="FFR4AA1 " voltageLevelId1="FFR2AA1" bus2="DDE1AA1 " connectableBus2="DDE1AA1 " voltageLevelId2="DDE1AA1">
        <iidm:currentLimits1 permanentLimit="2000.0"/>
        <iidm:currentLimits2 permanentLimit="2000.0"/>
    </iidm:line>
    <iidm:line id="FFR4AA1  DDE4AA1  1" r="0.0" x="10.0" g1="0.0" b1="0.0" g2="0.0" b2="0.0" bus1="FFR4AA1 " connectableBus1="FFR4AA1 " voltageLevelId1="FFR2AA1" bus2="DDE4AA1 " connectableBus2="DDE4AA1 " voltageLevelId2="DDE3AA1">
        <iidm:currentLimits1 permanentLimit="2000.0"/>
        <iidm:currentLimits2 permanentLimit="2000.0"/>
    </iidm:line>
    <iidm:line id="FFR2AA1  DDE3AA1  1" r="0.0" x="10.0" g1="0.0" b1="0.0" g2="0.0" b2="0.0" bus1="FFR2AA1 " connectableBus1="FFR2AA1 " voltageLevelId1="FFR2AA1" bus2="DDE3AA1 " connectableBus2="DDE3AA1 " voltageLevelId2="DDE3AA1">
        <iidm:currentLimits1 permanentLimit="2000.0"/>
        <iidm:currentLimits2 permanentLimit="2000.0"/>
    </iidm:line>
    <iidm:line id="DDE2AA1  NNL3AA1  1" r="0.0" x="10.0" g1="0.0" b1="0.0" g2="0.0" b2="0.0" bus1="DDE2AA1 " connectableBus1="DDE2AA1 " voltageLevelId1="DDE2AA1" bus2="NNL3AA1 " connectableBus2="NNL3AA1 " voltageLevelId2="NNL3AA1">
        <iidm:currentLimits1 permanentLimit="2000.0"/>
        <iidm:currentLimits2 permanentLimit="2000.0"/>
    </iidm:line>
    <iidm:line id="NNL2AA1  BBE3AA1  1" r="0.0" x="10.0" g1="0.0" b1="0.0" g2="0.0" b2="0.0" bus1="NNL2AA1 " connectableBus1="NNL2AA1 " voltageLevelId1="NNL2AA1" bus2="BBE3AA1 " connectableBus2="BBE3AA1 " voltageLevelId2="BBE2AA1">
        <iidm:currentLimits1 permanentLimit="2000.0"/>
        <iidm:currentLimits2 permanentLimit="2000.0"/>
    </iidm:line>
    <iidm:line id="BBE2AA1  FFR3AA1  1" r="0.0" x="10.0" g1="0.0" b1="0.0" g2="0.0" b2="0.0" bus1="BBE2AA1 " connectableBus1="BBE2AA1 " voltageLevelId1="BBE2AA1" bus2="FFR3AA1 " connectableBus2="FFR3AA1 " voltageLevelId2="FFR3AA1">
        <iidm:currentLimits1 permanentLimit="2000.0"/>
        <iidm:currentLimits2 permanentLimit="2000.0"/>
    </iidm:line>
    <iidm:line id="BBE1AA1  FFR5AA1  1" r="0.0" x="10.0" g1="0.0" b1="0.0" g2="0.0" b2="0.0" bus1="BBE1AA1 " connectableBus1="BBE1AA1 " voltageLevelId1="BBE1AA1" bus2="FFR5AA1 " connectableBus2="FFR5AA1 " voltageLevelId2="FFR5AA1">
        <iidm:currentLimits1 permanentLimit="2000.0"/>
        <iidm:currentLimits2 permanentLimit="2000.0"/>
    </iidm:line>
    <iidm:line id="BBE4AA1  FFR5AA1  1" r="0.0" x="10.0" g1="0.0" b1="0.0" g2="0.0" b2="0.0" bus1="BBE4AA1 " connectableBus1="BBE4AA1 " voltageLevelId1="BBE1AA1" bus2="FFR5AA1 " connectableBus2="FFR5AA1 " voltageLevelId2="FFR5AA1">
        <iidm:currentLimits1 permanentLimit="2000.0"/>
        <iidm:currentLimits2 permanentLimit="2000.0"/>
    </iidm:line>
</iidm:network>
